Version 4
SHEET 1 1884 744
WIRE 336 96 224 96
WIRE 480 96 416 96
WIRE 800 96 672 96
WIRE 944 96 864 96
WIRE -816 112 -848 112
WIRE -592 112 -736 112
WIRE -944 208 -1088 208
WIRE -848 208 -848 112
WIRE -848 208 -864 208
WIRE -768 208 -848 208
WIRE 16 208 -80 208
WIRE 368 208 336 208
WIRE 848 208 816 208
WIRE 1104 208 1056 208
WIRE -592 224 -592 112
WIRE -592 224 -704 224
WIRE -176 224 -592 224
WIRE -80 224 -80 208
WIRE -80 224 -176 224
WIRE 112 224 80 224
WIRE 160 224 112 224
WIRE 224 224 224 96
WIRE 224 224 208 224
WIRE 336 224 336 208
WIRE 336 224 288 224
WIRE 480 224 480 96
WIRE 480 224 432 224
WIRE 560 224 480 224
WIRE 672 224 672 96
WIRE 672 224 640 224
WIRE 688 224 672 224
WIRE 816 224 816 208
WIRE 816 224 768 224
WIRE 944 224 944 96
WIRE 944 224 912 224
WIRE 1056 224 1056 208
WIRE 1056 224 944 224
WIRE 1376 224 1168 224
WIRE 1472 224 1440 224
WIRE 1632 224 1472 224
WIRE -944 240 -1008 240
WIRE -800 240 -864 240
WIRE -768 240 -800 240
WIRE 16 240 -64 240
WIRE 368 240 336 240
WIRE 848 240 816 240
WIRE 1104 240 1072 240
WIRE -800 256 -800 240
WIRE 1472 272 1472 224
WIRE -464 288 -592 288
WIRE -368 288 -400 288
WIRE -1088 304 -1088 208
WIRE -1008 304 -1008 240
WIRE -64 304 -64 240
WIRE -16 304 -64 304
WIRE 112 304 112 224
WIRE 112 304 64 304
WIRE 336 304 336 240
WIRE 384 304 336 304
WIRE 480 304 480 224
WIRE 480 304 464 304
WIRE 768 304 768 224
WIRE 816 304 816 240
WIRE 864 304 816 304
WIRE 944 304 944 224
WIRE 1072 304 1072 240
WIRE 1120 304 1072 304
WIRE 1248 304 1216 304
WIRE 1376 304 1376 224
WIRE 1376 304 1248 304
WIRE 288 320 288 224
WIRE 336 320 336 304
WIRE 816 320 816 304
WIRE 1072 320 1072 304
WIRE -64 336 -64 304
WIRE -368 352 -368 288
WIRE -368 352 -416 352
WIRE -352 352 -368 352
WIRE -176 352 -176 224
WIRE -176 352 -272 352
WIRE -800 368 -800 336
WIRE -592 368 -592 288
WIRE -592 368 -800 368
WIRE -480 368 -592 368
WIRE -368 384 -416 384
WIRE 1248 384 1248 304
WIRE 1248 384 1168 384
WIRE -368 416 -368 384
WIRE 768 416 768 368
WIRE 816 416 816 400
WIRE 816 416 768 416
WIRE 1472 416 1472 352
WIRE 288 432 288 400
WIRE 336 432 336 400
WIRE 336 432 288 432
WIRE -64 448 -64 416
WIRE 336 448 336 432
WIRE 816 448 816 416
WIRE 1072 448 1072 400
WIRE -992 496 -1040 496
WIRE -992 528 -992 496
FLAG 336 448 0
FLAG 816 448 0
FLAG 1072 448 0
FLAG -1008 384 0
FLAG -1088 384 0
FLAG -736 192 Vcc
FLAG 400 192 -Vcc
FLAG 880 192 -Vcc
FLAG 1136 192 -Vcc
FLAG -736 256 -Vcc
FLAG 400 256 Vcc
FLAG 880 256 Vcc
FLAG 1136 256 Vcc
FLAG 96 624 0
FLAG 256 544 0
FLAG 96 544 Vcc
FLAG 256 624 -Vcc
FLAG -368 416 0
FLAG -448 336 Vcc
FLAG -448 400 -Vcc
FLAG 48 256 Vcc
FLAG 48 192 -Vcc
FLAG 1632 224 OUT
IOPIN 1632 224 Out
FLAG 1472 416 0
FLAG -1088 208 Electrode1
IOPIN -1088 208 In
FLAG -1008 240 Electrode2
IOPIN -1008 240 In
FLAG -1040 496 Reference/Bone
IOPIN -1040 496 In
FLAG -992 528 0
FLAG -64 448 0
SYMBOL cap 224 208 R90
WINDOW 0 0 32 VBottom 2
WINDOW 3 32 32 VTop 2
SYMATTR InstName C1
SYMATTR Value 220n
SYMBOL cap 288 208 R90
WINDOW 0 0 32 VBottom 2
WINDOW 3 32 32 VTop 2
SYMATTR InstName C2
SYMATTR Value 220n
SYMBOL res 432 80 R90
WINDOW 0 0 56 VBottom 2
WINDOW 3 32 56 VTop 2
SYMATTR InstName R3
SYMATTR Value 51k
SYMBOL res 320 304 R0
SYMATTR InstName R4
SYMATTR Value 47k
SYMBOL res 480 288 R90
WINDOW 0 0 56 VBottom 2
WINDOW 3 32 56 VTop 2
SYMATTR InstName R5
SYMATTR Value 10k
SYMBOL res 272 304 R0
SYMATTR InstName R6
SYMATTR Value 20k
SYMBOL res 656 208 R90
WINDOW 0 0 56 VBottom 2
WINDOW 3 32 56 VTop 2
SYMATTR InstName R7
SYMATTR Value 1k
SYMBOL res 784 208 R90
WINDOW 0 0 56 VBottom 2
WINDOW 3 32 56 VTop 2
SYMATTR InstName R8
SYMATTR Value 1k
SYMBOL cap 864 80 R90
WINDOW 0 0 32 VBottom 2
WINDOW 3 32 32 VTop 2
SYMATTR InstName C3
SYMATTR Value 330n
SYMBOL cap 752 304 R0
SYMATTR InstName C4
SYMATTR Value 330n
SYMBOL res 800 304 R0
SYMATTR InstName R9
SYMATTR Value 47k
SYMBOL res 960 288 R90
WINDOW 0 0 56 VBottom 2
WINDOW 3 32 56 VTop 2
SYMATTR InstName R10
SYMATTR Value 10k
SYMBOL res 1056 304 R0
SYMATTR InstName R11
SYMATTR Value 1k
SYMBOL voltage -1008 288 R0
WINDOW 123 0 0 Left 0
WINDOW 39 0 0 Left 0
WINDOW 3 24 96 Invisible 2
SYMATTR Value PWL file=myFilenew.txt
SYMATTR InstName V1
SYMBOL voltage -1088 288 R0
WINDOW 123 0 0 Left 0
WINDOW 39 0 0 Left 0
WINDOW 3 24 96 Invisible 2
SYMATTR Value PWL file=myFile.txt
SYMATTR InstName V2
SYMBOL res -720 96 R90
WINDOW 0 0 56 VBottom 2
WINDOW 3 32 56 VTop 2
SYMATTR InstName R2
SYMATTR Value 10k
SYMBOL res -816 240 R0
SYMATTR InstName R13
SYMATTR Value 10k
SYMBOL OpAmps\\opamp2 -736 160 R0
SYMATTR InstName U5
SYMATTR Value LM348
SYMBOL OpAmps\\opamp2 400 288 M180
SYMATTR InstName U1
SYMATTR Value LM348
SYMBOL OpAmps\\opamp2 880 288 M180
SYMATTR InstName U2
SYMATTR Value LM348
SYMBOL OpAmps\\opamp2 1136 288 M180
SYMATTR InstName U3
SYMATTR Value LM348
SYMBOL voltage 96 528 R0
WINDOW 123 0 0 Left 0
WINDOW 39 0 0 Left 0
SYMATTR InstName V3
SYMATTR Value 9
SYMBOL voltage 256 528 R0
WINDOW 123 0 0 Left 0
WINDOW 39 0 0 Left 0
SYMATTR InstName V4
SYMATTR Value 9
SYMBOL res -848 192 R90
WINDOW 0 0 56 VBottom 2
WINDOW 3 32 56 VTop 2
SYMATTR InstName R1
SYMATTR Value 10k
SYMBOL res -848 224 R90
WINDOW 0 0 56 VBottom 2
WINDOW 3 32 56 VTop 2
SYMATTR InstName R14
SYMATTR Value 10k
SYMBOL OpAmps\\opamp2 -448 304 M0
SYMATTR InstName U4
SYMATTR Value LM348
SYMBOL OpAmps\\opamp2 48 288 M180
SYMATTR InstName U6
SYMATTR Value LM348
SYMBOL cap -400 272 R90
WINDOW 0 0 32 VBottom 2
WINDOW 3 32 32 VTop 2
SYMATTR InstName C5
SYMATTR Value 220n
SYMBOL res -256 336 R90
WINDOW 0 0 56 VBottom 2
WINDOW 3 32 56 VTop 2
SYMATTR InstName R17
SYMATTR Value 470k
SYMBOL diode 1376 240 R270
WINDOW 0 32 32 VTop 2
WINDOW 3 0 32 VBottom 2
SYMATTR InstName D1
SYMBOL res 1456 256 R0
SYMATTR InstName R18
SYMATTR Value 1k
SYMBOL pot 1216 288 R90
SYMATTR InstName X1
SYMATTR SpiceLine R = 100k val = 90
SYMBOL res -80 320 R0
SYMATTR InstName R15
SYMATTR Value 1k
SYMBOL res 80 288 R90
WINDOW 0 0 56 VBottom 2
WINDOW 3 32 56 VTop 2
SYMATTR InstName R16
SYMATTR Value 100k
TEXT 200 -152 Left 2 !.lib LM348.301
TEXT 104 -144 Left 2 !.tran 1
TEXT 152 520 Left 2 ;Battery
TEXT -896 16 Left 2 ;Differential amplifier
TEXT -320 440 Left 2 ;Integrator
TEXT 168 16 Left 2 ;2nd order Sallen-Key HP filter
TEXT 624 16 Left 2 ;2nd order Sallen-Key LP filter
TEXT 1048 16 Left 2 ;Non-inverting opamp
TEXT 1392 16 Left 2 ;Rectifier circuit
TEXT 656 536 Left 4 ;Total gain of the circuit: 1000-1500
TEXT 656 648 Left 4 ;Power supply: +9 and -9 V dual supply
RECTANGLE Normal 352 688 16 496 2
RECTANGLE Normal -608 480 -960 -32 2
RECTANGLE Normal -160 480 -592 240 2
RECTANGLE Normal 544 480 112 -32 2
RECTANGLE Normal 992 480 576 -32 2
RECTANGLE Normal 1584 480 1360 -32 2
RECTANGLE Normal 1344 480 1008 -32 2
